Circuit: * D:\SlugSat\GitHub\COVID-19-Simulations\SE\Radiation_Detector\Combined_Waveforms\Final Combo\Draft1.asc

.OP point found by inspection.

Date: Mon Jun 08 00:14:55 2020
Total elapsed time: 0.171 seconds.

tnom = 27
temp = 27
method = modified trap
totiter = 15930
traniter = 15930
tranpoints = 7966
accept = 4838
rejected = 3128
matrix size = 7
fillins = 0
solver = Normal
Matrix Compiler1: 178 bytes object code size  0.0/1.0/[0.0]
Matrix Compiler2: 387 bytes object code size  0.1/0.6/[0.0]

