Circuit: * D:\SlugSat\GitHub\COVID-19-Simulations\SE\Radiation_Detector\Combined_Waveforms\Final Combo\Radiation_to_OBC.asc

WARNING: Node N007 is floating.

WARNING: Less than two connections to node ISR_EXIT.  This node is used by A13.
Direct Newton iteration failed to find .op point.  (Use ".option noopiter" to skip.)
Starting Gmin stepping
Gmin = 10
Gmin = 1.07374
Gmin = 0.115292
Gmin = 0.0123794
Gmin = 0.00132923
Gmin = 0.000142725
Gmin = 1.5325e-005
Gmin = 1.6455e-006
Gmin = 1.76685e-007
Gmin = 1.89714e-008
Gmin = 2.03704e-009
Gmin = 2.18725e-010
Gmin = 2.34854e-011
Gmin = 2.52173e-012
Gmin = 2.70769e-013
Gmin = 0
Gmin stepping succeeded in finding the operating point.

Heightened Def Con from 5.97505e-010 to 5.97505e-010
Heightened Def Con from 7.06258e-010 ++to 7.06258e-010
Heightened Def Con from 7.72453e-010 to 7.72453e-010
Heightened Def Con from 4.80227e-009 to 4.80227e-009
Heightened Def Con from 5.26739e-009 to 5.26739e-009
Heightened Def Con from 5.26739e-009 to 5.26739e-009

Date: Mon Jun 08 15:08:13 2020
Total elapsed time: 1.498 seconds.

tnom = 27
temp = 27
method = modified trap
totiter = 15483
traniter = 14900
tranpoints = 3542
accept = 2748
rejected = 802
matrix size = 181
fillins = 163
solver = Normal
Thread vector: 60.5/28.3[8] 20.9/12.9[8] 11.2/7.8[7] 1.1/10.3[1]  2592/500
Matrix Compiler1: 17.45 KB object code size  8.4/4.7/[1.6]
Matrix Compiler2: 18.09 KB object code size  5.3/6.0/[2.6]

