Circuit: * D:\SlugSat\GitHub\COVID-19-Simulations\SE\Radiation_Detector\Combined_Waveforms\Final Combo\Radiation_to_OBC.asc

WARNING: Node N006 is floating.

WARNING: Less than two connections to node ISR_EXIT.  This node is used by A13.
Direct Newton iteration failed to find .op point.  (Use ".option noopiter" to skip.)
Starting Gmin stepping
Gmin = 10
Gmin = 1.07374
Gmin = 0.115292
Gmin = 0.0123794
Gmin = 0.00132923
Gmin = 0.000142725
Gmin = 1.5325e-005
Gmin = 1.6455e-006
Gmin = 1.76685e-007
Gmin = 1.89714e-008
Gmin = 2.03704e-009
Gmin = 2.18725e-010
Gmin = 2.34854e-011
Gmin = 2.52173e-012
Gmin = 2.70769e-013
Gmin = 0
Gmin stepping succeeded in finding the operating point.

Heightened Def Con from 5.09971e-010 to 5.09971e-010
Heightened Def Con from 1.21726e-009 +to 1.21726e-009
Heightened Def Con from 1.21726e-009 +to 1.21726e-009
Heightened Def Con from 1.41357e-009 +to 1.41357e-009

Date: Fri Jun 05 20:27:06 2020
Total elapsed time: 1.363 seconds.

tnom = 27
temp = 27
method = modified trap
totiter = 13834
traniter = 13251
tranpoints = 3227
accept = 2541
rejected = 693
matrix size = 181
fillins = 163
solver = Normal
Thread vector: 63.5/32.8[8] 23.2/13.6[8] 29.0/11.0[8] 1.1/11.2[1]  2592/500
Matrix Compiler1: 17.45 KB object code size  8.9/5.1/[1.8]
Matrix Compiler2: 18.09 KB object code size  5.5/6.8/[1.4]

