Circuit: * D:\SlugSat\GitHub\COVID-19-Simulations\SE\Radiation_Detector\Combined_Waveforms\Final Combo\Radiation_to_OBC.asc

WARNING: Node N007 is floating.

WARNING: Less than two connections to node EXIT.  This node is used by A12.
Direct Newton iteration failed to find .op point.  (Use ".option noopiter" to skip.)
Starting Gmin stepping
Gmin = 10
Gmin = 1.07374
Gmin = 0.115292
Gmin = 0.0123794
Gmin = 0.00132923
Gmin = 0.000142725
Gmin = 1.5325e-005
Gmin = 1.6455e-006
Gmin = 1.76685e-007
Gmin = 1.89714e-008
Gmin = 2.03704e-009
Gmin = 2.18725e-010
Gmin = 2.34854e-011
Gmin = 2.52173e-012
Gmin = 2.70769e-013
Gmin = 0
Gmin stepping succeeded in finding the operating point.

Heightened Def Con from 9.7603e-010 to 9.7603e-010
Heightened Def Con from 9.7603e-010 to 9.7603e-010
Heightened Def Con from 2.06819e-009 to 2.06819e-009

Date: Wed Jun 03 09:06:54 2020
Total elapsed time: 2.976 seconds.

tnom = 27
temp = 27
method = modified trap
totiter = 11647
traniter = 11064
tranpoints = 2848
accept = 2302
rejected = 549
matrix size = 178
fillins = 145
solver = Normal
Thread vector: 44.8/24.6[8] 193.5/44.8[8] 37.8/22.9[8] 1.4/22.1[1]  2592/500
Matrix Compiler1: 15.95 KB object code size  41.1/3.8/[1.5]
Matrix Compiler2: 17.72 KB object code size  9.7/6.7/[1.8]

