Circuit: * D:\SlugSat\GitHub\COVID-19-Simulations\SE\Radiation_Detector\Combined_Waveforms\Final Combo\Radiation_to_OBC.asc

WARNING: Node N007 is floating.

WARNING: Less than two connections to node ISR_EXIT.  This node is used by A13.
Direct Newton iteration failed to find .op point.  (Use ".option noopiter" to skip.)
Starting Gmin stepping
Gmin = 10
Gmin = 1.07374
Gmin = 0.115292
Gmin = 0.0123794
Gmin = 0.00132923
Gmin = 0.000142725
Gmin = 1.5325e-005
Gmin = 1.6455e-006
Gmin = 1.76685e-007
Gmin = 1.89714e-008
Gmin = 2.03704e-009
Gmin = 2.18725e-010
Gmin = 2.34854e-011
Gmin = 2.52173e-012
Gmin = 2.70769e-013
Gmin = 0
Gmin stepping succeeded in finding the operating point.

Heightened Def Con from 1.59937e-012 +to 1.59937e-012
Heightened Def Con from 1.59937e-012 to 1.59937e-012
Heightened Def Con from 2.90966e-010 to 2.90966e-010
Heightened Def Con from 5.53088e-009 to 5.53088e-009
Heightened Def Con from 5.53088e-009 to 5.53088e-009
Heightened Def Con from 5.72832e-009 to 5.72832e-009

Date: Mon Jun 08 09:56:06 2020
Total elapsed time: 1.216 seconds.

tnom = 27
temp = 27
method = modified trap
totiter = 14150
traniter = 13567
tranpoints = 3292
accept = 2575
rejected = 724
matrix size = 181
fillins = 163
solver = Normal
Thread vector: 61.7/29.2[8] 21.0/13.4[8] 11.3/5.3[8] 1.5/6.7[1]  2592/500
Matrix Compiler1: 17.45 KB object code size  8.5/4.9/[1.9]
Matrix Compiler2: 18.09 KB object code size  5.3/9.3/[1.7]

