Circuit: * D:\SlugSat\GitHub\COVID-19-Simulations\SE\Radiation_Detector\Pulse_Shaper_Waveforms\Setup-With-Pulser-CSP-Shaper (100 ns) - Copy\Setup-With-Pulser-CSP-Shaper.asc

WARNING: Specified period is not longer than the sum of Trise, Tfall, and Ton for v:x1:1.  Increasing period to 0.00100001
Direct Newton iteration failed to find .op point.  (Use ".option noopiter" to skip.)
Starting Gmin stepping
Gmin = 10
Gmin = 1.07374
Gmin = 0.115292
Gmin = 0.0123794
Gmin = 0.00132923
Gmin = 0.000142725
Gmin = 1.5325e-005
Gmin = 1.6455e-006
vernier = 0.5
vernier = 0.666667
vernier = 0.333333
vernier = 0.166667
Gmin = 9.13138e-007
vernier = 0.0833333
vernier = 0.0416667
vernier = 0.0208333
vernier = 0.0104167
vernier = 0.00520833
vernier = 0.00260417
vernier = 0.00130208
vernier = 0.000651042
vernier = 0.000488281
Gmin = 0
Gmin = 0
Gmin stepping failed

Starting source stepping with srcstepmethod=0
Source Step = 3.0303%
Source Step = 33.3333%
Source Step = 63.6364%
Source Step = 93.9394%
Source stepping succeeded in finding the operating point.

Heightened Def Con from 6e-009 to 6.002e-009

Date: Sun May 10 15:15:35 2020
Total elapsed time: 53.980 seconds.

tnom = 27
temp = 27
method = modified trap
totiter = 2002370
traniter = 2000084
tranpoints = 1000028
accept = 1000024
rejected = 5
matrix size = 46
fillins = 29
solver = Normal
Thread vector: 10.3/9.3[2] 5.2/4.1[2] 0.8/2.8[1] 0.2/2.1[1]  2592/500
Matrix Compiler1: 5.39 KB object code size  1.4/0.7/[0.5]
Matrix Compiler2: 4.61 KB object code size  2.1/0.9/[0.4]

