Circuit: * D:\SlugSat\GitHub\COVID-19-Simulations\SE\Radiation_Detector\Combined_Waveforms\pC ~ OPA855 ~ 20 ns\combined-pulser-CSP-PS.asc

WARNING: Node N007 is floating.

WARNING: Less than two connections to node EXIT.  This node is used by A12.
Direct Newton iteration failed to find .op point.  (Use ".option noopiter" to skip.)
Starting Gmin stepping
Gmin = 10
Gmin = 1.07374
Gmin = 0.115292
Gmin = 0.0123794
Gmin = 0.00132923
Gmin = 0.000142725
Gmin = 1.5325e-005
Gmin = 1.6455e-006
Gmin = 1.76685e-007
Gmin = 1.89714e-008
Gmin = 2.03704e-009
Gmin = 2.18725e-010
Gmin = 2.34854e-011
Gmin = 2.52173e-012
Gmin = 2.70769e-013
Gmin = 0
Gmin stepping succeeded in finding the operating point.

Heightened Def Con from 5.97306e-010 to 5.97306e-010
Heightened Def Con from 1.41287e-009 to 1.41287e-009
Heightened Def Con from 2.5074e-009 to 2.5074e-009
Heightened Def Con from 2.5074e-009 +to 2.5074e-009
Heightened Def Con from 5.72873e-009 to 5.72873e-009

Date: Wed Jun 03 08:47:30 2020
Total elapsed time: 1.692 seconds.

tnom = 27
temp = 27
method = modified trap
totiter = 12497
traniter = 11914
tranpoints = 2966
accept = 2362
rejected = 610
matrix size = 178
fillins = 145
solver = Normal
Thread vector: 64.0/29.9[8] 36.4/14.0[8] 12.0/8.3[5] 0.9/4.4[1]  2592/500
Matrix Compiler1: 15.95 KB object code size  9.2/4.4/[1.8]
Matrix Compiler2: 17.72 KB object code size  5.5/6.5/[1.2]

