Circuit: * D:\SlugSat\GitHub\COVID-19-Simulations\SE\Radiation_Detector\Combined_Waveforms\pC ~ OPA855 ~ 20 ns\combined-pulser-CSP-PS.asc

WARNING: Node N010 is floating.

Direct Newton iteration for .op point succeeded.

Date: Sat May 30 19:16:32 2020
Total elapsed time: 305.699 seconds.

tnom = 27
temp = 27
method = modified trap
totiter = 7412934
traniter = 7412894
tranpoints = 3131816
accept = 2108291
rejected = 1023525
matrix size = 208
fillins = 186
solver = Normal
Thread vector: 37.7/9.3[6] 9.0/5.0[6] 6.6/3.6[6] 2.3/4.0[1]  2592/500
Matrix Compiler1: 20.54 KB object code size  10.4/4.6/[2.2]
Matrix Compiler2: 20.55 KB object code size  3.8/5.5/[2.9]

