Circuit: * D:\SlugSat\GitHub\COVID-19-Simulations\SE\Radiation_Detector\Combined_Waveforms\pC ~ OPA855 ~ 20 ns\combined-pulser-CSP-PS.asc

WARNING: Node N009 is floating.

Direct Newton iteration failed to find .op point.  (Use ".option noopiter" to skip.)
Starting Gmin stepping
Gmin = 10
Gmin = 1.07374
vernier = 0.5
vernier = 0.25
vernier = 0.125
vernier = 0.0625
Gmin = 0.995033
vernier = 0.03125
vernier = 0.015625
vernier = 0.0078125
vernier = 0.00390625
Gmin = 0.999816
vernier = 0.00195313
vernier = 0.000976563
vernier = 0.000488281
Gmin = 0
Gmin stepping failed

Starting source stepping with srcstepmethod=0
Source Step = 3.0303%
vernier = 0.25
Source Step = 0.0177557%
Starting source stepping with srcstepmethod=1
Source Step = 3.0303%
vernier = 0.25
Source stepping failed

Pseudo Transient succeeded in finding the operating point at 371.514 ms.

Date: Sat May 30 17:25:30 2020
Total elapsed time: 35.042 seconds.

tnom = 27
temp = 27
method = modified trap
totiter = 1398761
traniter = 1389514
tranpoints = 605943
accept = 427041
rejected = 178950
matrix size = 118
fillins = 211
solver = Normal
Thread vector: 10.2/6.2[4] 2.8/7.1[1] 4.1/3.2[4] 0.6/3.6[1]  2592/500
Matrix Compiler1: 14.22 KB object code size  6.4/3.5/[1.5]
Matrix Compiler2: 13.60 KB object code size  1.7/2.0/[1.3]

