Circuit: * D:\SlugSat\GitHub\COVID-19-Simulations\SE\Radiation_Detector\Combined_Waveforms\pC ~ OPA855 ~ 20 ns\combined-pulser-CSP-PS.asc

WARNING: Node N006 is floating.

Direct Newton iteration for .op point succeeded.

Date: Sun May 31 19:13:46 2020
Total elapsed time: 0.132 seconds.

tnom = 27
temp = 27
method = modified trap
totiter = 3548
traniter = 3514
tranpoints = 1397
accept = 1307
rejected = 90
matrix size = 47
fillins = 24
solver = Normal
Matrix Compiler1: 3.39 KB object code size  0.7/0.4/[0.2]
Matrix Compiler2: 4.34 KB object code size  0.4/0.6/[0.4]

