Circuit: * D:\SlugSat\GitHub\COVID-19-Simulations\SE\Radiation_Detector\Combined_Waveforms\pC ~ OPA855 ~ 20 ns\combined-pulser-CSP-PS.asc

Direct Newton iteration failed to find .op point.  (Use ".option noopiter" to skip.)
Starting Gmin stepping
Gmin = 10
Gmin = 1.07374
vernier = 0.5
vernier = 0.25
vernier = 0.125
vernier = 0.0625
Gmin = 0.995033
vernier = 0.03125
vernier = 0.015625
vernier = 0.0078125
vernier = 0.00390625
Gmin = 0.999816
vernier = 0.00195313
vernier = 0.000976563
vernier = 0.000488281
Gmin = 0
Gmin stepping failed

Starting source stepping with srcstepmethod=0
Source Step = 3.0303%
vernier = 0.25
Source Step = 0.0177557%
Starting source stepping with srcstepmethod=1
Source Step = 3.0303%
vernier = 0.25
Source stepping failed

Pseudo Transient succeeded in finding the operating point at 207.266 ms.

Date: Sat May 30 14:11:43 2020
Total elapsed time: 12.762 seconds.

tnom = 27
temp = 27
method = modified trap
totiter = 482458
traniter = 473488
tranpoints = 215019
accept = 150451
rejected = 64611
matrix size = 117
fillins = 192
solver = Normal
Thread vector: 14.8/6.6[3] 2.9/4.8[1] 5.2/3.3[3] 1.4/3.1[1]  2592/500
Matrix Compiler1: 13.72 KB object code size  3.0/1.5/[0.7]
Matrix Compiler2: 13.18 KB object code size  1.6/3.2/[0.9]

