Circuit: * D:\SlugSat\GitHub\COVID-19-Simulations\SE\Radiation_Detector\Combined_Waveforms\pC ~ OPA855 ~ 20 ns\combined-pulser-CSP-PS.asc

ERROR: Node U5:I0:I0:I21:1:102 is floating and connected to current source G:U5:I0:I0:I21:1:RA
ERROR: Node U5:I0:I0:I19:1:102 is floating and connected to current source G:U5:I0:I0:I19:1:RA
ERROR: Node U5:I0:I0:I19:1:302 is floating and connected to current source G:U5:I0:I0:I19:1:RC

u5:i0:i0:vprobe1: Missing value, assumed 0V @ DC
u5:i0:i0:vprobe2: Missing value, assumed 0V @ DC
Direct Newton iteration for .op point succeeded.

Date: Sat May 30 11:47:55 2020
Total elapsed time: 0.162 seconds.

tnom = 27
temp = 27
method = modified trap
totiter = 2218
traniter = 2184
tranpoints = 1093
accept = 1085
rejected = 8
matrix size = 224
fillins = 232
solver = Normal
Thread vector: 22.8/13.0[5] 6.1/3.8[5] 9.3/4.6[5] 0.9/2.0[1]  2592/500
Matrix Compiler1:     929 opcodes  6.8/[3.5]/14.4
Matrix Compiler2: off  [3.4]/5.2/13.3

