Circuit: * D:\SlugSat\GitHub\COVID-19-Simulations\SE\Radiation_Detector\Combined_Waveforms\pC ~ OPA855 ~ 20 ns\combined-pulser-CSP-PS.asc

WARNING: Node N008 is floating.

Direct Newton iteration for .op point succeeded.
Heightened Def Con from 2.9142e-010 to 2.9142e-010
Heightened Def Con from 2.9142e-010 to 2.9142e-010
Heightened Def Con from 3.25683e-010 to 3.25683e-010
Heightened Def Con from 5.33873e-010 to 5.33873e-010
Heightened Def Con from 3.1808e-009 to 3.1808e-009
Heightened Def Con from 3.1808e-009 to 3.1808e-009
Heightened Def Con from 3.86714e-009 to 3.86714e-009
Heightened Def Con from 3.65963e-008 to 3.65963e-008
Heightened Def Con from 3.65963e-008 to 3.75881e-008
Heightened Def Con from 7.28157e-008 to 7.28462e-008
Heightened Def Con from 7.38077e-008 to 7.38116e-008
Heightened Def Con from 7.38158e-008 to 7.38329e-008
Heightened Def Con from 7.38511e-008 to 7.38512e-008
Heightened Def Con from 7.38554e-008 to 7.58238e-008
Heightened Def Con from 7.58239e-008 to 7.58242e-008
Heightened Def Con from 7.58244e-008 to 7.59465e-008
Heightened Def Con from 7.59465e-008 to 7.59468e-008
Heightened Def Con from 7.59469e-008 to 7.59507e-008
Heightened Def Con from 7.59528e-008 to 7.5968e-008
Heightened Def Con from 7.59693e-008 to 7.59696e-008
Heightened Def Con from 7.59715e-008 to 7.89012e-008
Heightened Def Con from 8.09333e-008 to 8.09352e-008

Date: Tue Jun 02 10:56:20 2020
Total elapsed time: 0.835 seconds.

tnom = 27
temp = 27
method = modified trap
totiter = 16380
traniter = 16330
tranpoints = 3533
accept = 2688
rejected = 867
matrix size = 247
fillins = 272
solver = Normal
Thread vector: 37.8/14.5[4] 13.5/10.8[4] 8.6/5.1[4] 1.6/3.3[1]  2592/500
Matrix Compiler1: 21.67 KB object code size  5.6/2.8/[2.2]
Matrix Compiler2: off  [2.5]/6.9/3.5

