Circuit: * D:\SlugSat\GitHub\COVID-19-Simulations\SE\Radiation_Detector\Combined_Waveforms\pC ~ OPA855 ~ 20 ns\Draft3.asc

WARNING: Node N004 is floating.
ERROR: Node U1:I0:I0:I19:1:102 is floating and connected to current source G:U1:I0:I0:I19:1:RA
ERROR: Node U1:I0:I0:I19:1:302 is floating and connected to current source G:U1:I0:I0:I19:1:RC
ERROR: Node U1:I0:I0:I21:1:102 is floating and connected to current source G:U1:I0:I0:I21:1:RA
WARNING: Node U1:I0:I0:I30:NET047 is floating.
WARNING: Node U1:I0:I0:I30:NET064 is floating.

WARNING: Less than two connections to node U1:I0:I0:I30:NET047.  This node is used by V:U1:I0:I0:I30:3.
WARNING: Less than two connections to node U1:I0:I0:I30:NET064.  This node is used by V:U1:I0:I0:I30:4.
u1:i0:i0:vprobe1: Missing value, assumed 0V @ DC
u1:i0:i0:vprobe2: Missing value, assumed 0V @ DC
Direct Newton iteration for .op point succeeded.
Heightened Def Con from 2.97818e-010 +++to 1.09766e-009

Date: Mon Jun 01 17:18:52 2020
Total elapsed time: 0.429 seconds.

tnom = 27
temp = 27
method = modified trap
totiter = 2608
traniter = 2591
tranpoints = 1091
accept = 1049
rejected = 46
matrix size = 219
fillins = 381
solver = Normal
Thread vector: 21.9/9.1[5] 12.0/3.7[5] 10.5/3.7[5] 0.8/2.9[1]  2592/500
Matrix Compiler1: 30.03 KB object code size  9.7/4.5/[1.6]
Matrix Compiler2: 20.85 KB object code size  3.9/4.8/[1.0]

