Circuit: * D:\SlugSat\GitHub\COVID-19-Simulations\SE\Radiation_Detector\Individual_Cremat_Modules\pulser-0.1picocoulombs\pulser-0.1picocoulombs.asc

WARNING: Specified period is not longer than the sum of Trise, Tfall, and Ton for v1.  Increasing period to 0.00100001
WARNING: Node OUTPUT is floating.

WARNING: Less than two connections to node OUTPUT.  This node is used by C1.
.OP point found by inspection.

Date: Thu May 14 21:28:34 2020
Total elapsed time: 0.297 seconds.

tnom = 27
temp = 27
method = modified trap
totiter = 2048
traniter = 2048
tranpoints = 1025
accept = 1025
rejected = 0
matrix size = 3
fillins = 0
solver = Normal
Matrix Compiler1:       3 opcodes  0.0/[0.0]/0.0
Matrix Compiler2: off  [0.1]/0.1/0.1

