Circuit: * D:\SlugSat\GitHub\COVID-19-Simulations\SE\Radiation_Detector\Individual_Cremat_Modules\pulser-1picocoulombs\pulser-1picocoulombs.asc

WARNING: Node OUTPUT is floating.

WARNING: Less than two connections to node OUTPUT.  This node is used by C1.
Direct Newton iteration for .op point succeeded.

Date: Thu May 28 11:37:38 2020
Total elapsed time: 0.049 seconds.

tnom = 27
temp = 27
method = modified trap
totiter = 2103
traniter = 2100
tranpoints = 1051
accept = 1049
rejected = 2
matrix size = 3
fillins = 0
solver = Normal
Matrix Compiler1:       5 opcodes  0.0/[0.0]/0.0
Matrix Compiler2: off  [0.0]/0.0/0.0

