Circuit: *ADA4841 Macro-model

Fatal Error: No analysis request found.
