Circuit: * C:\Users\allys\Desktop\SlugSat\COVID-19-Simulations\SE\Radiation_Detector\Pulse_Shaper_Waveforms\Combined-Pulser-CSP-Shaper (250 ns)\combined-pulser-CSP-PS - sourced.asc

Limiting fall time of source i1 to 1e-007
ERROR: Node U4:I0:I0:I21:1:102 is floating and connected to current source G:U4:I0:I0:I21:1:RA
ERROR: Node U4:I0:I0:I19:1:102 is floating and connected to current source G:U4:I0:I0:I19:1:RA
ERROR: Node U4:I0:I0:I19:1:302 is floating and connected to current source G:U4:I0:I0:I19:1:RC

u4:i0:i0:vprobe1: Missing value, assumed 0V @ DC
u4:i0:i0:vprobe2: Missing value, assumed 0V @ DC
Direct Newton iteration for .op point succeeded.

Date: Sat May 30 01:00:18 2020
Total elapsed time: 4.401 seconds.

tnom = 27
temp = 27
method = modified trap
totiter = 60194
traniter = 60185
tranpoints = 30093
accept = 30080
rejected = 13
matrix size = 225
fillins = 279
solver = Normal
Thread vector: 75.6/32.8[5] 13.7/8.4[5] 21.1/14.8[5] 3.8/9.2[1]  2592/500
Matrix Compiler1:    1069 opcodes  22.2/[9.8]/52.7
Matrix Compiler2: off  [8.2]/9.3/269.8

