Circuit: * C:\Users\allys\Desktop\SlugSat\COVID-19-Simulations\SE\Radiation_Detector\Pulse_Shaper_Waveforms\Combined-Pulser-CSP-Shaper (250 ns)\combined-pulser-CSP-PS - sourced.asc

WARNING: Specified period is not longer than the sum of Trise, Tfall, and Ton for v3.  Increasing period to 0.00100001
ERROR: Node U4:I0:I0:I21:1:102 is floating and connected to current source G:U4:I0:I0:I21:1:RA
ERROR: Node U4:I0:I0:I19:1:102 is floating and connected to current source G:U4:I0:I0:I19:1:RA
ERROR: Node U4:I0:I0:I19:1:302 is floating and connected to current source G:U4:I0:I0:I19:1:RC

u4:i0:i0:vprobe1: Missing value, assumed 0V @ DC
u4:i0:i0:vprobe2: Missing value, assumed 0V @ DC
Direct Newton iteration for .op point succeeded.

Date: Fri May 29 20:19:55 2020
Total elapsed time: 5.071 seconds.

tnom = 27
temp = 27
method = modified trap
totiter = 60057
traniter = 60050
tranpoints = 30026
accept = 30024
rejected = 2
matrix size = 225
fillins = 226
solver = Normal
Thread vector: 102.1/19.0[5] 12.7/6.4[5] 18.9/6.7[5] 1.8/4.1[1]  2592/500
Matrix Compiler1:     935 opcodes  18.1/[10.4]/30.8
Matrix Compiler2: off  [10.3]/12.1/153.6

