Circuit: * D:\SlugSat\GitHub\COVID-19-Simulations\SE\Radiation_Detector\Individual_Cremat_Modules\pulser-1picocoulombs\pulser-1picocoulombs.asc

WARNING: Specified period is not longer than the sum of Trise, Tfall, and Ton for v1.  Increasing period to 0.00100001
WARNING: Node OUTPUT is floating.

WARNING: Less than two connections to node OUTPUT.  This node is used by C1.
.OP point found by inspection.

Date: Thu May 14 21:39:21 2020
Total elapsed time: 1.829 seconds.

tnom = 27
temp = 27
method = modified trap
totiter = 500050
traniter = 500050
tranpoints = 250026
accept = 250024
rejected = 2
matrix size = 3
fillins = 0
solver = Normal
Matrix Compiler1: off  [0.0]/0.0/0.0
Matrix Compiler2:      15 opcodes  0.0/[0.0]/0.1

