Circuit: * D:\SlugSat\GitHub\COVID-19-Simulations\SE\Radiation_Detector\Pulse_Shaper_Waveforms\2.88 pC ~ CR-113 ~ 100 ns\Setup-With-Pulser-CSP-Shaper.asc

WARNING: Specified period is not longer than the sum of Trise, Tfall, and Ton for v:x1:1.  Increasing period to 0.00100001
Direct Newton iteration for .op point succeeded.

Date: Thu May 14 23:00:57 2020
Total elapsed time: 62.845 seconds.

tnom = 27
temp = 27
method = modified trap
totiter = 2000077
traniter = 2000059
tranpoints = 1000029
accept = 1000026
rejected = 3
matrix size = 46
fillins = 31
solver = Normal
Thread vector: 7.5/6.1[2] 2.7/2.7[1] 0.6/1.4[1] 0.3/4.7[1]  2592/500
Matrix Compiler1: 5.29 KB object code size  1.7/1.3/[0.5]
Matrix Compiler2: 4.58 KB object code size  0.8/1.0/[0.5]

