Circuit: * D:\SlugSat\GitHub\COVID-19-Simulations\SE\Radiation_Detector\Pulse_Shaper_with_BLR_Waveforms\Setup-With-Pulser-CSP-Shaper-BLR (250 ns)\Setup-With-Pulser-CSP-Shaper-BLR.asc

WARNING: Specified period is not longer than the sum of Trise, Tfall, and Ton for v:x1:1.  Increasing period to 0.00100001
WARNING: Less than two connections to node N004.  This node is used by R:X4:4.
Direct Newton iteration failed to find .op point.  (Use ".option noopiter" to skip.)
Starting Gmin stepping
Gmin = 10
Gmin = 1.07374
Gmin = 0.115292
Gmin = 0.0123794
Gmin = 0.00132923
Gmin = 0.000142725
Gmin = 1.5325e-005
Gmin = 1.6455e-006
vernier = 0.5
vernier = 0.666667
vernier = 0.333333
vernier = 0.166667
Gmin = 9.13138e-007
vernier = 0.0833333
vernier = 0.0416667
vernier = 0.0208333
vernier = 0.0104167
vernier = 0.00520833
vernier = 0.00260417
vernier = 0.00130208
vernier = 0.000651042
vernier = 0.000488281
Gmin = 0
Gmin = 0
Gmin stepping failed

Starting source stepping with srcstepmethod=0
Source Step = 3.0303%
vernier = 0.25
Source Step = 0.0177557%
Starting source stepping with srcstepmethod=1
Source Step = 3.0303%
vernier = 0.25
Source stepping failed

Pseudo Transient succeeded in finding the operating point at 224.457 ms.

Date: Sun May 10 14:19:03 2020
Total elapsed time: 15.236 seconds.

tnom = 27
temp = 27
method = modified trap
totiter = 208971
traniter = 200050
tranpoints = 100009
accept = 100005
rejected = 34
matrix size = 77
fillins = 96
solver = Normal
Thread vector: 20.4/13.0[3] 5.9/4.5[3] 3.1/4.6[1] 0.6/2.8[1]  2592/500
Matrix Compiler1: 8.60 KB object code size  2.7/0.9/[0.6]
Matrix Compiler2: 8.70 KB object code size  2.2/2.1/[1.2]

