Circuit: * D:\SlugSat\GitHub\COVID-19-Simulations\SE\Radiation_Detector\Pulse_Shaper_Waveforms\Setup-With-Pulser-CSP-Shaper (100 ns)\0.1 pC\Setup-With-Pulser-CSP-Shaper.asc

WARNING: Specified period is not longer than the sum of Trise, Tfall, and Ton for v:x1:1.  Increasing period to 0.00100001
Direct Newton iteration failed to find .op point.  (Use ".option noopiter" to skip.)
Starting Gmin stepping
Gmin = 10
Gmin = 1.07374
Gmin = 0.115292
Gmin = 0.0123794
Gmin = 0.00132923
Gmin = 0.000142725
Gmin = 1.5325e-005
Gmin = 1.6455e-006
vernier = 0.5
vernier = 0.666667
vernier = 0.333333
vernier = 0.166667
Gmin = 9.13138e-007
vernier = 0.0833333
vernier = 0.0416667
vernier = 0.0208333
vernier = 0.0104167
vernier = 0.00520833
vernier = 0.00260417
vernier = 0.00130208
vernier = 0.000651042
vernier = 0.000488281
Gmin = 0
Gmin = 0
Gmin stepping failed

Starting source stepping with srcstepmethod=0
Source Step = 3.0303%
Source Step = 33.3333%
Source Step = 63.6364%
Source Step = 93.9394%
Source stepping succeeded in finding the operating point.


Date: Mon May 11 04:58:41 2020
Total elapsed time: 60.675 seconds.

tnom = 27
temp = 27
method = modified trap
totiter = 2002336
traniter = 2000050
tranpoints = 1000026
accept = 1000024
rejected = 2
matrix size = 46
fillins = 29
solver = Normal
Thread vector: 15.3/7.6[2] 3.6/2.6[2] 1.0/1.4[1] 0.2/5.7[1]  2592/500
Matrix Compiler1: 5.38 KB object code size  1.8/1.1/[0.3]
Matrix Compiler2: 4.62 KB object code size  0.7/1.0/[0.4]

